* 3x3 Resistor Grid Netlist
* simple test for Cholesky factorization

* passive elements
R00 _n_00_00_  _n_25_00_  4
R01 _n_25_00_  _n_50_00_  32

R02 _n_00_00_  _n_00_25_  18
R03 _n_25_00_  _n_25_25_  15
R04 _n_50_00_  _n_50_25_  92

R05 _n_00_25_  _n_25_25_  15
R06 _n_25_25_  _n_50_25_  28

R07 _n_00_25_  _n_00_50_  33
R08 _n_25_25_  _n_25_50_  29
R09 _n_50_25_  _n_50_50_  12

R10 _n_00_50_  _n_25_50_  48
R11 _n_25_50_  _n_50_50_  90

Rg1  _n_25_00_ 0 100
Rg2  _n_50_00_ 0 100

* current source
Isrc _n_00_00_  0 10

* options setup
.OPTIONS SPD
*.DC
* required simulation
.DC Isrc 0 11 1 

* required output
.PLOT V(_n_00_00_) 


/* Results */

SPARSE:0
SPD:1
ITER:0
plot:1

M2=0
N=10

Matrix A
 0.306  -0.250  0.000  -0.056  0.000  0.000  0.000  0.000  0.000 
 -0.250  0.358  -0.031  0.000  -0.067  0.000  0.000  0.000  0.000 
 0.000  -0.031  0.052  0.000  0.000  -0.011  0.000  0.000  0.000 
 -0.056  0.000  0.000  0.153  -0.067  0.000  -0.030  0.000  0.000 
 0.000  -0.067  0.000  -0.067  0.204  -0.036  0.000  -0.034  0.000 
 0.000  0.000  -0.011  0.000  -0.036  0.130  0.000  0.000  -0.083 
 0.000  0.000  0.000  -0.030  0.000  0.000  0.051  -0.021  0.000 
 0.000  0.000  0.000  0.000  -0.034  0.000  -0.021  0.066  -0.011 
 0.000  0.000  0.000  0.000  0.000  -0.083  0.000  -0.011  0.094 
 
B Vector
 -10.000  0.000  0.000  0.000  0.000  0.000  0.000  0.000  0.000 
 
CHOLESKY matrix
  0.552771  -0.452267  0.000000  -0.100504  0.000000  0.000000  0.000000  0.000000  0.000000 
 -0.452267  0.391626  -0.079795  -0.116066  -0.170230  0.000000  0.000000  0.000000  0.000000 
 0.000000  -0.079795  0.213898  -0.043299  -0.063505  -0.050817  0.000000  0.000000  0.000000 
 -0.100504  -0.116066  -0.043299  0.356480  -0.250152  -0.006172  -0.085006  0.000000  0.000000 
 0.000000  -0.170230  -0.063505  -0.250152  0.328547  -0.123226  -0.064723  -0.104955  0.000000 
 0.000000  0.000000  -0.050817  -0.006172  -0.123226  0.334832  -0.025387  -0.038626  -0.248881 
 0.000000  0.000000  0.000000  -0.085006  -0.064723  -0.025387  0.197678  -0.144714  -0.031962 
 0.000000  0.000000  0.000000  0.000000  -0.104955  -0.038626  -0.144714  0.181597  -0.139594 
 0.000000  0.000000  0.000000  0.000000  0.000000  -0.248881  -0.031962  -0.139594  0.109519 

 X Vector 
 -590.943332432173975  -555.366282395312624  -444.633717604688911  -571.040057598050453  -557.163176861984311  -535.340614027959532  -565.079858021502673  -556.410476819251585  -537.819421415170495 


 ---Sweeping details---
Current source:	src
Positive node of source: 1
Negative node of source: 0
Start value:	0.000e+00
End value:	1.100e+01
Sweep step:	1.000e+00
----------------------

Sweep source current at 0.000000:       Node _n_00_00_ value:   0.000000e+00
Sweep source current at 1.000000:       Node _n_00_00_ value:   -5.909433e+01
Sweep source current at 2.000000:       Node _n_00_00_ value:   -1.181887e+02
Sweep source current at 3.000000:       Node _n_00_00_ value:   -1.772830e+02
Sweep source current at 4.000000:       Node _n_00_00_ value:   -2.363773e+02
Sweep source current at 5.000000:       Node _n_00_00_ value:   -2.954717e+02
Sweep source current at 6.000000:       Node _n_00_00_ value:   -3.545660e+02
Sweep source current at 7.000000:       Node _n_00_00_ value:   -4.136603e+02
Sweep source current at 8.000000:       Node _n_00_00_ value:   -4.727547e+02
Sweep source current at 9.000000:       Node _n_00_00_ value:   -5.318490e+02
Sweep source current at 10.000000:      Node _n_00_00_ value:   -5.909433e+02
Sweep source current at 11.000000:      Node _n_00_00_ value:   -6.500377e+02

