V1 5 0 2 EXP (2 5 1 0.2 2 0.5)
V2 3 2 0.2 PULSE (0.2 1 1 0.1 0.4 0.5 2)
V3 7 6 2
I1 4 8 1e-3 SIN (1e-3 0.5 5 1 1 30)
L1 1 2 3
C1 1 2 6
I2 0 6 1e-3 PWL (0 1e-3) (1.2 0.1) (1.4 1) (2 0.2) (3 0.4)

.DC V3 0 1 5
.PLOT V(2)

.TRAN 0.05 3
.PRINT V(3) V(2) V(1)
.OPTIONS METHOD=BE